@<TRIPOS>MOLECULE
_
    8    12     0     0     0
SMALL
NO_CHARGES

@<TRIPOS>ATOM
      1 N1         -1.5022   -2.5064  -17.5002 N.3       1 UNL1        0.0000
      2 N2         18.5044   -2.5064  -17.5002 N.3       1 UNL1        0.0000
      3 N3         -1.5022   17.5070  -17.5002 N.3       1 UNL1        0.0000
      4 N4         18.5044   17.5070  -17.5002 N.3       1 UNL1        0.0000
      5 N5         -1.5022   -2.5064   14.5032 N.3       1 UNL1        0.0000
      6 N6         18.5044   -2.5064   14.5032 N.3       1 UNL1        0.0000
      7 N7         -1.5022   17.5370   14.5032 N.3       1 UNL1        0.0000
      8 N8         18.5044   17.5070   14.5032 N.3       1 UNL1        0.0000
@<TRIPOS>BOND
     1    1    2 1
     2    2    4 1
     3    3    4 1
     4    1    3 1
     5    5    6 1
     6    6    8 1
     7    7    8 1
     8    5    7 1
     9    1    5 1
    10    2    6 1
    11    4    8 1
    12    3    7 1
