@<TRIPOS>MOLECULE
_
    8    12     0     0     0
SMALL
NO_CHARGES

@<TRIPOS>ATOM
      1 N1         -0.2822   -1.8964  -16.5202 N.3       1 UNL1        0.0000
      2 N2         19.3844   -1.8964  -16.5202 N.3       1 UNL1        0.0000
      3 N3         -0.2822   16.4370  -16.5202 N.3       1 UNL1        0.0000
      4 N4         19.3844   16.4370  -16.5202 N.3       1 UNL1        0.0000
      5 N5         -0.2822   -1.8964   13.8132 N.3       1 UNL1        0.0000
      6 N6         19.3844   -1.8964   13.8132 N.3       1 UNL1        0.0000
      7 N7         -0.2822   16.4370   13.8132 N.3       1 UNL1        0.0000
      8 N8         19.3844   16.4370   13.8132 N.3       1 UNL1        0.0000
@<TRIPOS>BOND
     1    1    2 1
     2    2    4 1
     3    3    4 1
     4    1    3 1
     5    5    6 1
     6    6    8 1
     7    7    8 1
     8    5    7 1
     9    1    5 1
    10    2    6 1
    11    4    8 1
    12    3    7 1
